New line.
You am bad.
New line and finished.