New line.
You am good.
New line and finished.