New line.
You are bad.
New line and finished.